Circuit: * C:\Users\byrne\pai\Docs\spice\tone.asc

.step toneset=1
.step toneset=1001
.step toneset=2001
.step toneset=3001
.step toneset=4001
.step toneset=5001
.step toneset=6001
.step toneset=7001
.step toneset=8001
.step toneset=9001
.step toneset=10001

Date: Mon Nov 26 14:53:21 2018
Total elapsed time: 0.404 seconds.

tnom = 27
temp = 27
method = trap
totiter = 0
traniter = 0
tranpoints = 0
accept = 0
rejected = 0
matrix size = 6
fillins = 4
solver = Normal

